Circuit: * C:\Users\joa-m\InformesLabo\TP3\Draft1.asc


Date: Thu Sep 27 21:29:37 2018
Total elapsed time: 0.047 seconds.

tnom = 27
temp = 27
method = trap
totiter = 0
traniter = 0
tranpoints = 0
accept = 0
rejected = 0
matrix size = 3
fillins = 1
solver = Normal

