Circuit: * C:\Users\joa-m\InformesLabo\TP3\LABOEJ3.asc

Direct Newton iteration for .op point succeeded.
