Circuit: * C:\Users\Marcelo\Documents\GitHub\InformesLabo\TP3\Simulacion\CircuitoBoost.asc

Direct Newton iteration for .op point succeeded.

Date: Thu Sep 27 23:06:11 2018
Total elapsed time: 0.703 seconds.

tnom = 27
temp = 27
method = modified trap
totiter = 561701
traniter = 561695
tranpoints = 205524
accept = 180614
rejected = 24910
matrix size = 12
fillins = 0
solver = Normal
Matrix Compiler1: 606 bytes object code size  0.1/0.1/[0.1]
Matrix Compiler2: 886 bytes object code size  0.1/0.1/[0.1]

