Circuit: * C:\Users\Marcelo\Documents\GitHub\InformesLabo\TP3\Simulacion\CircuitoBoost.asc

Direct Newton iteration for .op point succeeded.

Date: Thu Sep 27 20:22:39 2018
Total elapsed time: 0.609 seconds.

tnom = 27
temp = 27
method = modified trap
totiter = 575465
traniter = 575460
tranpoints = 209311
accept = 182787
rejected = 26524
matrix size = 11
fillins = 1
solver = Normal
Matrix Compiler1: off  [0.0]/0.1/0.1
Matrix Compiler2: 827 bytes object code size  0.1/0.1/[0.1]

