Circuit: * C:\Users\Marcelo\Documents\GitHub\InformesLabo\TP3\Simulacion\CircuitoBoost.asc

Direct Newton iteration for .op point succeeded.

Date: Fri Sep 28 01:57:56 2018
Total elapsed time: 1.186 seconds.

tnom = 27
temp = 27
method = modified trap
totiter = 575471
traniter = 575466
tranpoints = 209314
accept = 182790
rejected = 26524
matrix size = 11
fillins = 1
solver = Normal
Matrix Compiler1: 574 bytes object code size  0.1/0.1/[0.1]
Matrix Compiler2: 827 bytes object code size  0.1/0.1/[0.1]

