Circuit: * C:\Users\Marcelo\Documents\GitHub\InformesLabo\TP3\Simulacion\CircuitoBoost.asc

.OP point found by inspection.

Date: Fri Sep 28 16:44:39 2018
Total elapsed time: 0.734 seconds.

tnom = 27
temp = 27
method = modified trap
totiter = 634421
traniter = 634421
tranpoints = 229175
accept = 195460
rejected = 33715
matrix size = 11
fillins = 0
solver = Normal
Matrix Compiler1:      32 opcodes  0.1/[0.1]/0.1
Matrix Compiler2: off  [0.1]/0.1/0.1

