Circuit: * C:\Users\Marcelo\Documents\GitHub\InformesLabo\TP3\Simulacion\CircuitoBoost.asc

.OP point found by inspection.

Date: Fri Sep 28 13:21:04 2018
Total elapsed time: 1.469 seconds.

tnom = 27
temp = 27
method = modified trap
totiter = 634433
traniter = 634433
tranpoints = 229180
accept = 195463
rejected = 33717
matrix size = 11
fillins = 0
solver = Normal
Matrix Compiler1: 556 bytes object code size  0.2/0.1/[0.1]
Matrix Compiler2: 813 bytes object code size  0.1/0.2/[0.1]

