Circuit: * C:\Users\Marcelo\Documents\GitHub\InformesLabo\TP3\Simulacion\Draft1.asc

.OP point found by inspection.

Date: Thu Sep 27 22:17:00 2018
Total elapsed time: 0.031 seconds.

tnom = 27
temp = 27
method = modified trap
totiter = 1284
traniter = 1284
tranpoints = 643
accept = 442
rejected = 201
matrix size = 4
fillins = 0
solver = Normal
Matrix Compiler1: 100 bytes object code size  0.1/0.1/[0.1]
Matrix Compiler2: 248 bytes object code size  0.0/0.0/[0.0]

